*Heading
** Job name: ERMUncFEModelInp Model name: Model-1
** Generated by: Abaqus/CAE 2021
*Preprint, echo=NO, model=NO, history=NO, contact=NO
**
** PARTS
**
*Part, name=Part-1
*Node
      1,           5.,           9.
      2,          -5.,           9.
      3,          -5.,           0.
      4,           5.,           0.
      5,           5.,          10.
      6,          -5.,          10.
      7,          4.5,           9.
      8,   4.04906082,           9.
      9,   3.64236856,           9.
     10,    3.2755816,           9.
     11,    2.9447844,           9.
     12,   2.64644551,           9.
     13,   2.37738013,           9.
     14,   2.13471603,           9.
     15,   1.91586244,           9.
     16,   1.71848309,           9.
     17,   1.54047096,           9.
     18,   1.37992573,           9.
     19,   1.23513341,           9.
     20,   1.10454834,           9.
** ... 14878 like lines cut
*Element, type=CPS4R
   1,    1,    7,  611,  336
   2,    7,    8,  612,  611
   3,    8,    9,  613,  612
   4,    9,   10,  614,  613
   5,   10,   11,  615,  614
   6,   11,   12,  616,  615
   7,   12,   13,  617,  616
   8,   13,   14,  618,  617
   9,   14,   15,  619,  618
  10,   15,   16,  620,  619
  11,   16,   17,  621,  620
  12,   17,   18,  622,  621
  13,   18,   19,  623,  622
  14,   19,   20,  624,  623
  15,   20,   21,  625,  624
  16,   21,   22,  626,  625
  17,   22,   23,  627,  626
  18,   23,   24,  628,  627
  19,   24,   25,  629,  628
  20,   25,   26,  630,  629
** ... 14610 like lines cut
*Nset, nset=Set-1, generate
     1,  14898,      1
*Elset, elset=Set-1, generate
     1,  14630,      1
** Section: Section-1
*Solid Section, elset=Set-1, material=Material-1
,
*End Part
**  
**
** ASSEMBLY
**
*Assembly, name=Assembly
**  
*Instance, name=Part-1-1, part=Part-1
*End Instance
**  
*Nset, nset=CoordNodes, instance=Part-1-1
    45,   209,   474,   649,   725,   801,   877,   953,  1029,  1105,  1181,  1257,  1333,  1409,  1485,  1561
  1637,  1713,  1789,  1865,  1941,  2017,  2093,  2169,  2245,  2321,  2397,  2473,  2549,  2625,  2701,  2777
  2853,  2929,  3005,  3081,  3157,  3233,  3309,  3385,  3461,  3537,  3613,  3689,  3765,  3841,  3917,  3993
  4069,  4145,  4221,  4297,  4373,  4449,  4525,  4601,  4677,  4753,  4829,  4905,  4981,  5057,  5133,  5209
  5285,  5361,  5437,  5513,  5589,  5665,  5741,  5817,  5893,  5969,  6045,  6121,  6197,  6273,  6349,  6425
  6501,  6577,  6653,  6729,  6805,  6881,  6957,  7033,  7109,  7185,  7261,  7337,  7412,  7488,  7564,  7640
  7716,  7792,  7868,  7944,  8020,  8096,  8172,  8248,  8324,  8400,  8476,  8552,  8628,  8704,  8780,  8856
  8932,  9008,  9084,  9160,  9236,  9312,  9388,  9464,  9540,  9616,  9692,  9768,  9844,  9920,  9996, 10072
 10148, 10224, 10300, 10376, 10452, 10528, 10604, 10680, 10756, 10832, 10908, 10984, 11060, 11136, 11212, 11288
 11364, 11440, 11516, 11592, 11668, 11744, 11820, 11896, 11972, 12048, 12124, 12200, 12276, 12352, 12428, 12504
 12580, 12656, 12732, 12808, 12884, 12960, 13036, 13112, 13188, 13264, 13340, 13416, 13492, 13568, 13644, 13720
 13796, 13872, 13948, 14024, 14100, 14176, 14252, 14328, 14404, 14480, 14556, 14632, 14708, 14784, 14860
*Nset, nset=MidNode, instance=Part-1-1
 3612,
*Nset, nset=NALL, instance=Part-1-1, generate
     1,  14898,      1
*Elset, elset=StressElements, instance=Part-1-1, generate
    39,  14592,     77
*End Assembly
** 
** INITIAL CONDITIONS
**
*INITIAL CONDITIONS, TYPE= TEMPERATURE
NALL, 0.000
*INITIAL CONDITIONS, TYPE= SOLUTION, USER
**
** MATERIALS
** 
*Material, name=Material-1
*Elastic
210000., 0.3
** UEXPAN CALL
**
*Expansion, user, type=ortho
*DEPVAR
6
** BOUNDARY CONDITIONS
** 
** Name: BC-1 Type: Symmetry/Antisymmetry/Encastre
*Boundary
MidNode, ENCASTRE
*AMPLITUDE, NAME=TEMP_CURV,TIME=STEP TIME, VALUE=ABSOLUTE
0.0, 0.0, 1.0, 1.0
**
** STEP: Step-1
** 
*Step, name=Step-1, nlgeom=YES
*Static
0.1, 1., 1e-05, 1.
*TEMPERATURE, AMPLITUDE=TEMP_CURV
NALL, 1.0
** 
**//////////////////////////////////////////
**////           OUTPUT FILES           ////
**//////////////////////////////////////////
**
**   Variables to print in results file   **
**                                        **
**----------------------------------------**
*el print, elset=StressElements, f=1
coord,
s, 
e, 
the, 
temp, 
sdv,
*node print, nset=CoordNodes, f=1
coord,
u, 
rf, 
*el file, elset=StressElements
coord,
s,
e, 
the, 
temp,
sdv,
*OUTPUT,FIELD
*ELEMENT OUTPUT
coord,
s,
e,
the,
temp,
sdv,
*node file, nset=CoordNodes
coord, 
u, 
rf, 
*OUTPUT,FIELD
*NODE OUTPUT
coord,
u,
rf,
*endstep
